<edges>
	<edges from="1" id="1to2" to="2" numLanes="5" speed="13.8"/>
</edges>
