<nodes>
	<node id="1" x="0.0" y="0.0" />
	<node id="2" x="3000.0" y="0.0" />
</nodes>
